case_study/opendss_scripts/LVTestCase/di_idv_700_Curr_Elem.Txt

CIRCUIT ELEMENT CURRENTS

(Currents into element from indicated bus)

Power Delivery Elements

  Bus     Phase    Magnitude, A     Angle      (Real)   +j  (Imag)

ELEMENT = "Vsource.SOURCE"
SOURCEBUS     1          0.42364 /_  161.8 =   -0.40246 +j   0.13227
SOURCEBUS     2          0.42364 /_   41.8 =    0.31578 +j    0.2824
SOURCEBUS     3          0.42364 /_  -78.2 =   0.086681 +j  -0.41467
------------
SOURCEBUS     0          0.42364 /_  -18.2 =    0.40246 +j  -0.13227
SOURCEBUS     0          0.42364 /_ -138.2 =   -0.31578 +j   -0.2824
SOURCEBUS     0          0.42364 /_  101.8 =  -0.086681 +j   0.41467

ELEMENT = "Transformer.TR1"
SOURCEBUS     1          0.42364 /_  -18.2 =    0.40246 +j  -0.13227
SOURCEBUS     2          0.42364 /_ -138.2 =   -0.31578 +j   -0.2824
SOURCEBUS     3          0.42364 /_  101.8 =  -0.086681 +j   0.41467
SOURCEBUS     0                0 /_    0.0 =          0 +j         0
------------
1             1            11.65 /_  131.8 =    -7.7666 +j     8.683
1             2            11.65 /_   11.8 =     11.403 +j    2.3846
1             3            11.65 /_ -108.2 =    -3.6364 +j   -11.068
1             0      2.2198E-009 /_  -47.7 =  1.4952E-009 +j -1.6407E-009

ELEMENT = "Line.LINE1"
1             1            11.65 /_  -48.2 =     7.7666 +j    -8.683
1             2            11.65 /_ -168.2 =    -11.403 +j   -2.3846
1             3            11.65 /_   71.8 =     3.6364 +j    11.068
------------
2             1            11.65 /_  131.8 =    -7.7666 +j     8.683
2             2            11.65 /_   11.8 =     11.403 +j    2.3846
2             3            11.65 /_ -108.2 =    -3.6364 +j   -11.068

ELEMENT = "Line.LINE2"
2             1            11.65 /_  -48.2 =     7.7666 +j    -8.683
2             2            11.65 /_ -168.2 =    -11.403 +j   -2.3846
2             3            11.65 /_   71.8 =     3.6364 +j    11.068
------------
3             1            11.65 /_  131.8 =    -7.7666 +j     8.683
3             2            11.65 /_   11.8 =     11.403 +j    2.3846
3             3            11.65 /_ -108.2 =    -3.6364 +j   -11.068

ELEMENT = "Line.LINE3"
3             1            11.65 /_  -48.2 =     7.7666 +j    -8.683
3             2            11.65 /_ -168.2 =    -11.403 +j   -2.3846
3             3            11.65 /_   71.8 =     3.6364 +j    11.068
------------
10            1            11.65 /_  131.8 =    -7.7666 +j     8.683
10            2            11.65 /_   11.8 =     11.403 +j    2.3846
10            3            11.65 /_ -108.2 =    -3.6364 +j   -11.068

ELEMENT = "Line.LINE4"
10            1            7.252 /_  -48.2 =     4.8357 +j   -5.4044
10            2            7.252 /_ -168.2 =    -7.0982 +j   -1.4856
10            3            7.252 /_   71.8 =     2.2625 +j      6.89
------------
11            1            7.252 /_  131.8 =    -4.8357 +j    5.4044
11            2            7.252 /_   11.8 =     7.0982 +j    1.4856
11            3            7.252 /_ -108.2 =    -2.2625 +j     -6.89

ELEMENT = "Line.LINE5"
11            1           9.9783 /_  -48.2 =     6.6524 +j   -7.4371
11            2           9.9783 /_ -168.2 =     -9.767 +j   -2.0426
11            3           9.9783 /_   71.8 =     3.1145 +j    9.4797
------------
12            1           9.9783 /_  131.8 =    -6.6524 +j    7.4371
12            2           9.9783 /_   11.8 =      9.767 +j    2.0426
12            3           9.9783 /_ -108.2 =    -3.1145 +j   -9.4797

ELEMENT = "Line.LINE6"
12            1           9.9783 /_  -48.2 =     6.6524 +j   -7.4371
12            2           9.9783 /_ -168.2 =     -9.767 +j   -2.0426
12            3           9.9783 /_   71.8 =     3.1145 +j    9.4797
------------
13            1           9.9783 /_  131.8 =    -6.6524 +j    7.4371
13            2           9.9783 /_   11.8 =      9.767 +j    2.0426
13            3           9.9783 /_ -108.2 =    -3.1145 +j   -9.4797

ELEMENT = "Line.LINE7"
13            1      7.6384E-006 /_  -43.9 =  5.5021E-006 +j -5.2983E-006
13            2      7.6384E-006 /_ -163.9 =  -7.3395E-006 +j -2.1158E-006
13            3      7.6383E-006 /_   76.1 =  1.8374E-006 +j 7.4141E-006
------------
14            1      7.6384E-006 /_  136.1 =  -5.5021E-006 +j 5.2983E-006
14            2      7.6384E-006 /_   16.1 =  7.3395E-006 +j 2.1158E-006
14            3      7.6383E-006 /_ -103.9 =  -1.8374E-006 +j -7.4141E-006

ELEMENT = "Line.LINE8"
10            1           4.3977 /_  -48.2 =     2.9309 +j   -3.2786
10            2           4.3977 /_ -168.2 =    -4.3048 +j  -0.89896
10            3           4.3977 /_   71.8 =     1.3739 +j    4.1776
------------
100           1           4.3977 /_  131.8 =    -2.9309 +j    3.2786
100           2           4.3977 /_   11.8 =     4.3048 +j   0.89896
100           3           4.3977 /_ -108.2 =    -1.3739 +j   -4.1776

ELEMENT = "Line.LINE9"
11            1           2.7263 /_  131.8 =    -1.8168 +j    2.0328
11            2           2.7263 /_   11.8 =     2.6688 +j   0.55699
11            3           2.7263 /_ -108.2 =   -0.85204 +j   -2.5897
------------
110           1           2.7263 /_  -48.2 =     1.8168 +j   -2.0328
110           2           2.7263 /_ -168.2 =    -2.6688 +j  -0.55699
110           3           2.7263 /_   71.8 =    0.85204 +j    2.5897

ELEMENT = "Line.LINE10"
12            1      3.2865E-006 /_  -41.9 =  2.4463E-006 +j -2.1948E-006
12            2      3.2866E-006 /_ -161.9 =  -3.1239E-006 +j -1.0212E-006
12            3      3.2866E-006 /_   78.1 =  6.7757E-007 +j 3.2159E-006
------------
120           1      3.2865E-006 /_  138.1 =  -2.4463E-006 +j 2.1948E-006
120           2      3.2866E-006 /_   18.1 =  3.1239E-006 +j 1.0212E-006
120           3      3.2866E-006 /_ -101.9 =  -6.7757E-007 +j -3.2159E-006

ELEMENT = "Line.LINE11"
13            1           9.9783 /_  -48.2 =     6.6524 +j   -7.4371
13            2           9.9783 /_ -168.2 =    -9.7669 +j   -2.0426
13            3           9.9783 /_   71.8 =     3.1145 +j    9.4797
------------
130           1           9.9783 /_  131.8 =    -6.6524 +j    7.4371
130           2           9.9783 /_   11.8 =     9.7669 +j    2.0426
130           3           9.9783 /_ -108.2 =    -3.1145 +j   -9.4797

ELEMENT = "Line.LINE12"
14            1      3.8192E-006 /_  -43.9 =  2.751E-006 +j -2.6491E-006
14            2      3.8192E-006 /_ -163.9 =  -3.6697E-006 +j -1.0579E-006
14            3      3.8192E-006 /_   76.1 =  9.1869E-007 +j 3.707E-006
------------
140           1      3.8192E-006 /_  136.1 =  -2.751E-006 +j 2.6491E-006
140           2      3.8192E-006 /_   16.1 =  3.6697E-006 +j 1.0579E-006
140           3      3.8192E-006 /_ -103.9 =  -9.1869E-007 +j -3.707E-006

ELEMENT = "Line.LINE13"
10            1      2.2478E-006 /_  -35.1 =  1.8392E-006 +j -1.2922E-006
10            2      2.2478E-006 /_ -155.1 =  -2.0387E-006 +j -9.4668E-007
10            3      2.2478E-006 /_   84.9 =  1.9951E-007 +j 2.2389E-006
------------
101           1      2.2478E-006 /_  144.9 =  -1.8392E-006 +j 1.2922E-006
101           2      2.2478E-006 /_   24.9 =  2.0387E-006 +j 9.4668E-007
101           3      2.2478E-006 /_  -95.1 =  -1.9951E-007 +j -2.2389E-006

ELEMENT = "Line.LINE14"
11            1      2.7676E-006 /_  -39.2 =  2.1452E-006 +j -1.7486E-006
11            2      2.7676E-006 /_ -159.2 =  -2.5869E-006 +j -9.8346E-007
11            3      2.7676E-006 /_   80.8 =  4.4177E-007 +j 2.7321E-006
------------
111           1      2.7676E-006 /_  140.8 =  -2.1452E-006 +j 1.7486E-006
111           2      2.7676E-006 /_   20.8 =  2.5869E-006 +j 9.8346E-007
111           3      2.7676E-006 /_  -99.2 =  -4.4177E-007 +j -2.7321E-006

ELEMENT = "Line.LINE15"
12            1      3.2865E-006 /_  -41.9 =  2.4463E-006 +j -2.1948E-006
12            2      3.2866E-006 /_ -161.9 =  -3.1239E-006 +j -1.0212E-006
12            3      3.2866E-006 /_   78.1 =  6.7757E-007 +j 3.2159E-006
------------
121           1      3.2865E-006 /_  138.1 =  -2.4463E-006 +j 2.1948E-006
121           2      3.2866E-006 /_   18.1 =  3.1239E-006 +j 1.0212E-006
121           3      3.2866E-006 /_ -101.9 =  -6.7757E-007 +j -3.2159E-006

ELEMENT = "Line.LINE16"
13            1      3.7462E-006 /_  -43.7 =  2.7097E-006 +j -2.5868E-006
13            2      3.7462E-006 /_ -163.7 =  -3.5951E-006 +j -1.0533E-006
13            3      3.7462E-006 /_   76.3 =  8.8534E-007 +j 3.6401E-006
------------
131           1      3.7462E-006 /_  136.3 =  -2.7097E-006 +j 2.5868E-006
131           2      3.7462E-006 /_   16.3 =  3.5951E-006 +j 1.0533E-006
131           3      3.7462E-006 /_ -103.7 =  -8.8534E-007 +j -3.6401E-006

ELEMENT = "Line.LINE17"
14            1      3.8192E-006 /_  -43.9 =  2.751E-006 +j -2.6491E-006
14            2      3.8192E-006 /_ -163.9 =  -3.6697E-006 +j -1.0579E-006
14            3      3.8192E-006 /_   76.1 =  9.1869E-007 +j 3.707E-006
------------
141           1      3.8192E-006 /_  136.1 =  -2.751E-006 +j 2.6491E-006
141           2      3.8192E-006 /_   16.1 =  3.6697E-006 +j 1.0579E-006
141           3      3.8192E-006 /_ -103.9 =  -9.1869E-007 +j -3.707E-006

ELEMENT = "Line.LINE18"
2             1      1.2962E-005 /_   -4.2 =  1.2927E-005 +j -9.5198E-007
2             2      1.2962E-005 /_ -124.2 =  -7.288E-006 +j -1.0719E-005
2             3      1.2962E-005 /_  115.8 =  -5.6391E-006 +j 1.1671E-005
------------
4             1      1.2962E-005 /_  175.8 =  -1.2927E-005 +j 9.5198E-007
4             2      1.2962E-005 /_   55.8 =  7.288E-006 +j 1.0719E-005
4             3      1.2962E-005 /_  -64.2 =  5.6391E-006 +j -1.1671E-005

ELEMENT = "Line.LINE19"
4             1      1.2962E-005 /_   -4.2 =  1.2927E-005 +j -9.5199E-007
4             2      1.2962E-005 /_ -124.2 =  -7.288E-006 +j -1.0719E-005
4             3      1.2962E-005 /_  115.8 =  -5.6391E-006 +j 1.1671E-005
------------
20            1      1.2962E-005 /_  175.8 =  -1.2927E-005 +j 9.5199E-007
20            2      1.2962E-005 /_   55.8 =  7.288E-006 +j 1.0719E-005
20            3      1.2962E-005 /_  -64.2 =  5.6391E-006 +j -1.1671E-005

ELEMENT = "Line.LINE20"
20            1      1.0564E-005 /_   -4.4 =  1.0533E-005 +j -8.1378E-007
20            2      1.0564E-005 /_ -124.4 =  -5.9711E-006 +j -8.7147E-006
20            3      1.0564E-005 /_  115.6 =  -4.5616E-006 +j 9.5285E-006
------------
21            1      1.0564E-005 /_  175.6 =  -1.0533E-005 +j 8.1378E-007
21            2      1.0564E-005 /_   55.6 =  5.9711E-006 +j 8.7147E-006
21            3      1.0564E-005 /_  -64.4 =  4.5616E-006 +j -9.5285E-006

ELEMENT = "Line.LINE21"
21            1      8.0366E-006 /_   -4.6 =  8.011E-006 +j -6.4078E-007
21            2      8.0366E-006 /_ -124.6 =  -4.5604E-006 +j -6.6173E-006
21            3      8.0366E-006 /_  115.4 =  -3.4506E-006 +j 7.2581E-006
------------
22            1      8.0366E-006 /_  175.4 =  -8.011E-006 +j 6.4078E-007
22            2      8.0366E-006 /_   55.4 =  4.5604E-006 +j 6.6173E-006
22            3      8.0366E-006 /_  -64.6 =  3.4506E-006 +j -7.2581E-006

ELEMENT = "Line.LINE22"
22            1      5.4118E-006 /_   -4.7 =  5.3937E-006 +j -4.4167E-007
22            2      5.4118E-006 /_ -124.7 =  -3.0794E-006 +j -4.4503E-006
22            3      5.4118E-006 /_  115.3 =  -2.3144E-006 +j 4.892E-006
------------
23            1      5.4118E-006 /_  175.3 =  -5.3937E-006 +j 4.4167E-007
23            2      5.4118E-006 /_   55.3 =  3.0794E-006 +j 4.4503E-006
23            3      5.4118E-006 /_  -64.7 =  2.3144E-006 +j -4.892E-006

ELEMENT = "Line.LINE23"
23            1      2.7221E-006 /_   -4.7 =  2.7128E-006 +j -2.2519E-007
23            2      2.7221E-006 /_ -124.7 =  -1.5514E-006 +j -2.2368E-006
23            3      2.7221E-006 /_  115.3 =  -1.1614E-006 +j 2.4619E-006
------------
24            1      2.7221E-006 /_  175.3 =  -2.7128E-006 +j 2.2519E-007
24            2      2.7221E-006 /_   55.3 =  1.5514E-006 +j 2.2368E-006
24            3      2.7221E-006 /_  -64.7 =  1.1614E-006 +j -2.4619E-006

ELEMENT = "Line.LINE24"
20            1      1.1991E-006 /_   -3.3 =  1.1972E-006 +j -6.9099E-008
20            2      1.1991E-006 /_ -123.3 =  -6.5841E-007 +j -1.0022E-006
20            3      1.1991E-006 /_  116.7 =  -5.3874E-007 +j 1.0713E-006
------------
200           1      1.1991E-006 /_  176.7 =  -1.1972E-006 +j 6.9099E-008
200           2      1.1991E-006 /_   56.7 =  6.5841E-007 +j 1.0022E-006
200           3      1.1991E-006 /_  -63.3 =  5.3874E-007 +j -1.0713E-006

ELEMENT = "Line.LINE25"
21            1      1.2638E-006 /_   -3.9 =  1.2609E-006 +j -8.6503E-008
21            2      1.2638E-006 /_ -123.9 =  -7.0535E-007 +j -1.0487E-006
21            3      1.2638E-006 /_  116.1 =  -5.5552E-007 +j 1.1352E-006
------------
210           1      1.2638E-006 /_  176.1 =  -1.2609E-006 +j 8.6503E-008
210           2      1.2638E-006 /_   56.1 =  7.0535E-007 +j 1.0487E-006
210           3      1.2638E-006 /_  -63.9 =  5.5552E-007 +j -1.1352E-006

ELEMENT = "Line.LINE26"
22            1      1.3124E-006 /_   -4.4 =  1.3086E-006 +j -9.9551E-008
22            2      1.3124E-006 /_ -124.4 =  -7.4053E-007 +j -1.0835E-006
22            3      1.3124E-006 /_  115.6 =  -5.681E-007 +j 1.1831E-006
------------
220           1      1.3124E-006 /_  175.6 =  -1.3086E-006 +j 9.9551E-008
220           2      1.3124E-006 /_   55.6 =  7.4053E-007 +j 1.0835E-006
220           3      1.3124E-006 /_  -64.4 =  5.681E-007 +j -1.1831E-006

ELEMENT = "Line.LINE27"
23            1      1.3448E-006 /_   -4.6 =  1.3405E-006 +j -1.0825E-007
23            2      1.3448E-006 /_ -124.6 =  -7.6398E-007 +j -1.1068E-006
23            3      1.3448E-006 /_  115.4 =  -5.7649E-007 +j 1.215E-006
------------
230           1      1.3448E-006 /_  175.4 =  -1.3405E-006 +j 1.0825E-007
230           2      1.3448E-006 /_   55.4 =  7.6398E-007 +j 1.1068E-006
230           3      1.3448E-006 /_  -64.6 =  5.7649E-007 +j -1.215E-006

ELEMENT = "Line.LINE28"
24            1      1.3611E-006 /_   -4.7 =  1.3564E-006 +j -1.1259E-007
24            2      1.3611E-006 /_ -124.7 =  -7.757E-007 +j -1.1184E-006
24            3      1.3611E-006 /_  115.3 =  -5.8069E-007 +j 1.231E-006
------------
240           1      1.3611E-006 /_  175.3 =  -1.3564E-006 +j 1.1259E-007
240           2      1.3611E-006 /_   55.3 =  7.757E-007 +j 1.1184E-006
240           3      1.3611E-006 /_  -64.7 =  5.8069E-007 +j -1.231E-006

ELEMENT = "Line.LINE29"
20            1      1.1991E-006 /_   -3.3 =  1.1972E-006 +j -6.9099E-008
20            2      1.1991E-006 /_ -123.3 =  -6.5841E-007 +j -1.0022E-006
20            3      1.1991E-006 /_  116.7 =  -5.3874E-007 +j 1.0713E-006
------------
201           1      1.1991E-006 /_  176.7 =  -1.1972E-006 +j 6.9099E-008
201           2      1.1991E-006 /_   56.7 =  6.5841E-007 +j 1.0022E-006
201           3      1.1991E-006 /_  -63.3 =  5.3874E-007 +j -1.0713E-006

ELEMENT = "Line.LINE30"
21            1      1.2638E-006 /_   -3.9 =  1.2609E-006 +j -8.6503E-008
21            2      1.2638E-006 /_ -123.9 =  -7.0535E-007 +j -1.0487E-006
21            3      1.2638E-006 /_  116.1 =  -5.5552E-007 +j 1.1352E-006
------------
211           1      1.2638E-006 /_  176.1 =  -1.2609E-006 +j 8.6503E-008
211           2      1.2638E-006 /_   56.1 =  7.0535E-007 +j 1.0487E-006
211           3      1.2638E-006 /_  -63.9 =  5.5552E-007 +j -1.1352E-006

ELEMENT = "Line.LINE31"
22            1      1.3124E-006 /_   -4.4 =  1.3086E-006 +j -9.9551E-008
22            2      1.3124E-006 /_ -124.4 =  -7.4053E-007 +j -1.0835E-006
22            3      1.3124E-006 /_  115.6 =  -5.681E-007 +j 1.1831E-006
------------
221           1      1.3124E-006 /_  175.6 =  -1.3086E-006 +j 9.9551E-008
221           2      1.3124E-006 /_   55.6 =  7.4053E-007 +j 1.0835E-006
221           3      1.3124E-006 /_  -64.4 =  5.681E-007 +j -1.1831E-006

ELEMENT = "Line.LINE32"
23            1      1.3448E-006 /_   -4.6 =  1.3405E-006 +j -1.0825E-007
23            2      1.3448E-006 /_ -124.6 =  -7.6398E-007 +j -1.1068E-006
23            3      1.3448E-006 /_  115.4 =  -5.7649E-007 +j 1.215E-006
------------
231           1      1.3448E-006 /_  175.4 =  -1.3405E-006 +j 1.0825E-007
231           2      1.3448E-006 /_   55.4 =  7.6398E-007 +j 1.1068E-006
231           3      1.3448E-006 /_  -64.6 =  5.7649E-007 +j -1.215E-006

ELEMENT = "Line.LINE33"
24            1      1.3611E-006 /_   -4.7 =  1.3564E-006 +j -1.1259E-007
24            2      1.3611E-006 /_ -124.7 =  -7.757E-007 +j -1.1184E-006
24            3      1.3611E-006 /_  115.3 =  -5.8069E-007 +j 1.231E-006
------------
241           1      1.3611E-006 /_  175.3 =  -1.3564E-006 +j 1.1259E-007
241           2      1.3611E-006 /_   55.3 =  7.757E-007 +j 1.1184E-006
241           3      1.3611E-006 /_  -64.7 =  5.8069E-007 +j -1.231E-006

= = = = = = = = = = = = = = = = = = =  = = = = = = = = = = =  = =

Power Conversion Elements

  Bus     Phase    Magnitude, A     Angle      (Real)   +j  (Imag)

ELEMENT = "Load.LOAD1"
100           1           4.3977 /_  -48.2 =     2.9309 +j   -3.2786
100           2           4.3977 /_ -168.2 =    -4.3048 +j  -0.89895
100           3           4.3977 /_   71.8 =     1.3739 +j    4.1776
100           0         8.6E-010 /_  131.8 =  -5.7307E-010 +j 6.4124E-010

ELEMENT = "Load.LOAD2"
110           1           2.7263 /_  131.8 =    -1.8168 +j    2.0328
110           2           2.7263 /_   11.8 =     2.6688 +j   0.55699
110           3           2.7263 /_ -108.2 =   -0.85204 +j   -2.5898
110           0      5.3295E-010 /_  -48.2 =  3.5505E-010 +j -3.9746E-010

ELEMENT = "Load.LOAD3"
120           1                0 /_    0.0 =          0 +j         0
120           2                0 /_    0.0 =          0 +j         0
120           3                0 /_    0.0 =          0 +j         0
120           0                0 /_    0.0 =          0 +j         0

ELEMENT = "Load.LOAD4"
130           1           9.9782 /_  -48.2 =     6.6524 +j   -7.4371
130           2           9.9782 /_ -168.2 =    -9.7669 +j   -2.0426
130           3           9.9782 /_   71.8 =     3.1145 +j    9.4797
130           0      1.9544E-009 /_  131.8 =  -1.3032E-009 +j 1.4565E-009

ELEMENT = "Load.LOAD5"
140           1                0 /_    0.0 =          0 +j         0
140           2                0 /_    0.0 =          0 +j         0
140           3                0 /_    0.0 =          0 +j         0
140           0                0 /_    0.0 =          0 +j         0

ELEMENT = "Load.LOAD6"
101           1                0 /_    0.0 =          0 +j         0
101           2                0 /_    0.0 =          0 +j         0
101           3                0 /_    0.0 =          0 +j         0
101           0                0 /_    0.0 =          0 +j         0

ELEMENT = "Load.LOAD7"
111           1                0 /_    0.0 =          0 +j         0
111           2                0 /_    0.0 =          0 +j         0
111           3                0 /_    0.0 =          0 +j         0
111           0                0 /_    0.0 =          0 +j         0

ELEMENT = "Load.LOAD8"
121           1                0 /_    0.0 =          0 +j         0
121           2                0 /_    0.0 =          0 +j         0
121           3                0 /_    0.0 =          0 +j         0
121           0                0 /_    0.0 =          0 +j         0

ELEMENT = "Load.LOAD9"
131           1                0 /_    0.0 =          0 +j         0
131           2                0 /_    0.0 =          0 +j         0
131           3                0 /_    0.0 =          0 +j         0
131           0                0 /_    0.0 =          0 +j         0

ELEMENT = "Load.LOAD10"
141           1                0 /_    0.0 =          0 +j         0
141           2                0 /_    0.0 =          0 +j         0
141           3                0 /_    0.0 =          0 +j         0
141           0                0 /_    0.0 =          0 +j         0

ELEMENT = "Load.LOAD11"
200           1                0 /_    0.0 =          0 +j         0
200           2                0 /_    0.0 =          0 +j         0
200           3                0 /_    0.0 =          0 +j         0
200           0                0 /_    0.0 =          0 +j         0

ELEMENT = "Load.LOAD12"
210           1                0 /_    0.0 =          0 +j         0
210           2                0 /_    0.0 =          0 +j         0
210           3                0 /_    0.0 =          0 +j         0
210           0                0 /_    0.0 =          0 +j         0

ELEMENT = "Load.LOAD13"
220           1                0 /_    0.0 =          0 +j         0
220           2                0 /_    0.0 =          0 +j         0
220           3                0 /_    0.0 =          0 +j         0
220           0                0 /_    0.0 =          0 +j         0

ELEMENT = "Load.LOAD14"
230           1                0 /_    0.0 =          0 +j         0
230           2                0 /_    0.0 =          0 +j         0
230           3                0 /_    0.0 =          0 +j         0
230           0                0 /_    0.0 =          0 +j         0

ELEMENT = "Load.LOAD15"
240           1                0 /_    0.0 =          0 +j         0
240           2                0 /_    0.0 =          0 +j         0
240           3                0 /_    0.0 =          0 +j         0
240           0                0 /_    0.0 =          0 +j         0

ELEMENT = "Load.LOAD16"
201           1                0 /_    0.0 =          0 +j         0
201           2                0 /_    0.0 =          0 +j         0
201           3                0 /_    0.0 =          0 +j         0
201           0                0 /_    0.0 =          0 +j         0

ELEMENT = "Load.LOAD17"
211           1                0 /_    0.0 =          0 +j         0
211           2                0 /_    0.0 =          0 +j         0
211           3                0 /_    0.0 =          0 +j         0
211           0                0 /_    0.0 =          0 +j         0

ELEMENT = "Load.LOAD18"
221           1                0 /_    0.0 =          0 +j         0
221           2                0 /_    0.0 =          0 +j         0
221           3                0 /_    0.0 =          0 +j         0
221           0                0 /_    0.0 =          0 +j         0

ELEMENT = "Load.LOAD19"
231           1                0 /_    0.0 =          0 +j         0
231           2                0 /_    0.0 =          0 +j         0
231           3                0 /_    0.0 =          0 +j         0
231           0                0 /_    0.0 =          0 +j         0

ELEMENT = "Load.LOAD20"
241           1                0 /_    0.0 =          0 +j         0
241           2                0 /_    0.0 =          0 +j         0
241           3                0 /_    0.0 =          0 +j         0
241           0                0 /_    0.0 =          0 +j         0

